Version 4
SHEET 1 2452 692
WIRE 544 -416 320 -416
WIRE 784 -416 544 -416
WIRE 320 -320 320 -416
WIRE 784 -304 784 -416
WIRE 544 -176 544 -416
WIRE 208 -160 -128 -160
WIRE 512 -160 208 -160
WIRE 784 -160 784 -224
WIRE 688 -144 576 -144
WIRE 320 -128 320 -240
WIRE 512 -128 320 -128
WIRE -128 -64 -128 -160
WIRE 544 -64 544 -112
WIRE 320 -32 320 -128
WIRE -128 112 -128 16
WIRE 320 112 320 48
WIRE 1088 112 1008 112
WIRE 1232 112 1152 112
WIRE 1488 112 1328 112
WIRE 688 160 688 -144
WIRE 1232 160 688 160
WIRE 1488 160 1344 160
WIRE 544 208 320 208
WIRE 784 208 544 208
WIRE 320 272 320 208
WIRE 784 272 784 208
WIRE 1232 272 1232 192
WIRE 544 384 544 208
WIRE 208 400 208 -160
WIRE 512 400 208 400
WIRE 784 400 784 352
WIRE 688 416 576 416
WIRE 320 432 320 352
WIRE 512 432 320 432
WIRE 544 496 544 448
WIRE 688 496 688 416
WIRE 1008 496 1008 112
WIRE 1008 496 688 496
WIRE 320 528 320 432
WIRE 320 672 320 608
FLAG -128 112 0
FLAG 544 496 0
FLAG 784 -160 0
FLAG 320 112 0
FLAG 784 400 0
FLAG 320 672 0
FLAG 544 -64 0
FLAG 1232 272 0
SYMBOL voltage -128 -80 R0
WINDOW 3 24 44 Left 2
WINDOW 123 0 0 Left 0
WINDOW 39 0 0 Left 0
SYMATTR Value PULSE(0 5 0 1m 1m 0 2m)
SYMATTR InstName V1
SYMBOL OpAmps\\LT1413 544 -208 R0
SYMATTR InstName U1
SYMBOL OpAmps\\LT1413 544 352 R0
SYMATTR InstName U2
SYMBOL res 304 -336 R0
SYMATTR InstName R1
SYMATTR Value 11K
SYMBOL res 304 -48 R0
SYMATTR InstName R2
SYMATTR Value 1K
SYMBOL voltage 784 -320 R0
WINDOW 123 0 0 Left 0
WINDOW 39 0 0 Left 0
SYMATTR InstName V2
SYMATTR Value 12
SYMBOL res 304 256 R0
SYMATTR InstName R3
SYMATTR Value 20K
SYMBOL res 304 512 R0
SYMATTR InstName R4
SYMATTR Value 10K
SYMBOL voltage 784 256 R0
WINDOW 123 0 0 Left 0
WINDOW 39 0 0 Left 0
SYMATTR InstName V3
SYMATTR Value 12
SYMBOL Digital\\srflop 1280 64 R0
SYMATTR InstName A1
SYMBOL Digital\\inv 1088 48 R0
SYMATTR InstName A3
TEXT -112 -144 Left 2 !.tran 15ms
